14
butane
C            1.427139    -1.350941    0.000000
C            0.000010    -0.770321    0.000000
C            0.000000      0.770292    0.000000
C          -1.427146      1.350933    0.000000
H            1.407900    -2.435390    0.000000
H            1.972218    -1.021893    0.878617
H            1.972218    -1.021893   -0.878617
H          -0.537116    -1.126324     0.874129
H          -0.537116    -1.126324   -0.874129
H            0.537157     1.126395   -0.874096
H            0.537157     1.126395     0.874096
H          -1.407863     2.435388     0.000000
H          -1.972288     1.021935     0.878609
H          -1.972288     1.021935   -0.878609