60

O       97.873900000   103.017000000   100.816000000
H       98.128600000   103.038000000    99.848800000
H       97.173800000   102.317000000   100.960000000
O       99.814000000   100.835000000   101.232000000
H       99.329200000    99.976800000   101.063000000
H       99.151600000   101.561000000   101.414000000
O       98.804000000    98.512200000    97.758100000
H       99.782100000    98.646900000    97.916700000
H       98.421800000    99.326500000    97.321300000
O      100.747000000   100.164000000   103.736000000
H      100.658000000   100.628000000   102.855000000
H      100.105000000    99.398600000   103.776000000
O       98.070300000    98.516900000   100.438000000
H       97.172800000    98.878600000   100.690000000
H       98.194000000    98.592200000    99.448100000
O       96.373500000    99.168100000   103.663000000
H       96.032600000    99.385200000   104.578000000
H       97.337900000    98.909800000   103.720000000
O       96.855700000    95.639100000   102.759000000
H       96.157300000    96.250200000   102.386000000
H       97.741700000    95.856700000   102.349000000
O       98.548000000   101.265000000    97.248600000
H       98.688900000   102.140000000    97.711000000
H       97.919900000   101.391000000    96.480800000
O      103.898000000    98.427900000    99.984500000
H      103.015000000    98.654900000    99.573700000
H      104.128000000    97.477300000    99.776100000
O       99.166600000    96.442100000   101.723000000
H       98.843200000    97.206600000   101.166000000
H       99.643900000    95.783700000   101.141000000
O       96.227200000   100.990000000   101.698000000
H       96.148800000   100.422000000   102.517000000
H       95.313600000   101.237000000   101.375000000
O       98.864800000    98.222500000   103.917000000
H       98.949800000    97.463000000   103.272000000
H       99.054800000    97.896400000   104.843000000
O      104.578000000   100.035000000   101.952000000
H      104.419000000   101.011000000   101.802000000
H      104.206000000    99.514900000   101.184000000
O       98.771600000   100.739000000   106.197000000
H       99.398100000   101.178000000   106.840000000
H       99.297200000   100.231000000   105.514000000
O       99.505700000    94.600000000    99.762000000
H       98.915000000    94.230400000    99.044800000
H      100.455000000    94.596700000    99.446700000
O      102.360000000   101.551000000    99.964500000
H      102.675000000   102.370000000   100.444000000
H      101.556000000   101.180000000   100.430000000
O      103.133000000   101.981000000   104.535000000
H      103.581000000   102.216000000   103.673000000
H      102.678000000   101.095000000   104.444000000
O      101.836000000    97.446700000   102.110000000
H      100.860000000    97.397400000   101.898000000
H      101.991000000    97.133400000   103.047000000
O      101.665000000    98.316100000    98.319400000
H      101.904000000    99.233800000    98.002000000
H      102.224000000    97.640900000    97.837700000
O       99.984700000   103.272000000   102.307000000
H       99.640700000   103.104000000   103.231000000
H       99.216500000   103.453000000   101.693000000
