6

C           -1.134198030305     0.805346729417     0.000914008604
C           -1.264572536470    -0.579590849294    -0.001293968529
H            2.249007791668     1.030772818072     0.002297540661
H           -0.231818076276    -2.463075520895    -0.003923913453
H            2.017155651109    -1.432299218731    -0.001626848033
