18
flexible geo
O 0.1591857 -1.954628 0.1393719
H -0.2072332 -2.794235 -0.1270278
H -0.5945121 -1.360001 0.2996680
O -1.731776 -1.9051475E-02 0.5258383
H -1.960926 0.2252599 -0.3831388
H -1.111319 0.6581559 0.8236995
O 0.6082981 1.624661 1.072328
H 1.102658 0.8980513 1.486282
H 0.8118832 2.412451 1.570961
O 0.8817142 0.3705042 -1.526156
H 0.8078969 -0.5161678 -1.153095
H 0.8871059 0.9551412 -0.7569820
O 1.837185 -0.6706138 1.956882
H 1.316496 -1.250441 1.379721
H 2.690298 -1.088613 2.052503
O -1.816895 0.6495292 -2.183868
H -1.997308 1.214244 -2.931710
H -0.8505743 0.5992838 -2.114000