48
flexible geo
O 0.1796774 -2.082367 -1.355394
H 0.2411734 -2.377420 -2.271844
H 0.9243208 -1.478134 -1.215826
O 0.3017150 1.893437 -1.591119
H 0.5399662 2.070440 -2.509070
H -0.4608879 1.296246 -1.620542
O 1.704133 -0.1786564 1.808603
H 1.001791 -0.8336617 1.679182
H 1.798836 -7.1161851E-02 2.762648
O -2.185642 0.3679926 1.137929
H -1.465334 1.015956 1.157202
H -2.579998 0.3783420 2.018325
O -1.737227 -2.7583912E-02 -1.595177
H -1.152927 -0.7955803 -1.510452
H -2.133427 0.1102061 -0.7257482
O 6.6173725E-02 2.033277 1.193267
H 0.7038406 1.334698 1.402478
H 0.1803259 2.234257 0.2560152
O -0.4825959 -1.869653 1.354424
H -1.139276 -1.163533 1.261875
H -0.2976453 -2.188006 0.4620590
O 2.153385 -0.1358189 -0.9525592
H 1.588246 0.6247595 -1.153900
H 2.250695 -0.1560314 7.6436601E-03
O 1.385181 0.2067220 4.576726
H 0.7592283 0.9401698 4.446021
H 1.910956 0.4232892 5.342972
O 0.4060182 -2.356611 -4.145791
H 0.2404088 -3.005765 -4.825237
H -0.1990874 -1.612710 -4.311027
O -2.768142 0.3371839 3.889767
H -3.513988 0.2071536 4.470525
H -2.148211 -0.3940537 4.056564
O 0.9773507 1.812578 -4.320531
H 1.362867 2.374967 -4.988042
H 1.588177 1.066202 -4.191466
O -1.151070 -0.1291175 -4.364399
H -0.5439264 0.6156465 -4.457990
H -1.566414 -2.8514629E-02 -3.497559
O -0.8399358 -1.573096 4.148462
H -3.1104930E-02 -1.107500 4.395584
H -0.6948130 -1.904492 3.252270
O 2.477683 -0.3926863 -3.754625
H 1.916475 -1.155547 -3.942114
H 2.594627 -0.3757729 -2.795418
O -0.4863594 2.094663 3.970609
H -1.341114 1.647113 4.004606
H -0.3331884 2.308775 3.040699