90
flexible geo
O -0.150235505706 -1.957558199158 -4.119589982436
H 0.767827680329 -1.689293506043 -3.992836880411
H -0.654248458277 -1.135513821098 -4.190461569032
O -0.373968847610 3.066744646157 -4.010683350810
H -0.305846596404 3.744065193210 -4.679563328160
H -0.948450925862 3.419244635523 -3.308676587279
O -1.520630770915 0.484513410116 -3.867313909006
H -1.161957029281 1.348247821154 -4.098910139562
H -1.394953965033 0.394910851746 -2.908903160261
O 2.334541328797 -0.852867686032 -3.277310032103
H 3.229601641262 -0.954675046524 -2.931726354389
H 2.097554165792 0.079390904018 -3.148768533709
O -4.168379188154 0.085508651512 -2.952526622535
H -3.355451572343 0.204489321657 -3.462944065772
H -4.039937542293 -0.718597316318 -2.433650324151
O -1.476916376798 -3.867793936346 -2.728650218074
H -1.726908568900 -4.557964002456 -3.339371551217
H -0.974880424437 -3.211039171881 -3.242339192238
O 1.665226521237 1.740309867921 -2.583646747835
H 1.029667565722 2.246572540131 -3.102384640041
H 1.339067373929 1.712503921958 -1.672370657475
O 4.728839403617 -0.906852136324 -1.730411688561
H 4.322768918830 -1.028419248011 -0.857332912904
H 5.552888314139 -1.389321491051 -1.719911219009
O -1.969924935296 3.907430076450 -2.005346467706
H -2.812023474827 3.453323322477 -1.880952531834
H -1.585781764949 4.031280524137 -1.128115114649
O -4.384440928534 2.395796347216 -1.537815851888
H -5.268376672974 2.745564671308 -1.626165021430
H -4.355468433909 1.575643487858 -2.058564100439
O 4.317540055708 1.962999972175 -1.547814717981
H 4.607202238136 1.056378052737 -1.706062568998
H 3.473312833231 2.042209061181 -2.010689554453
O -3.213301754695 -2.090923357784 -1.356652496056
H -3.011241039898 -2.227521723356 -0.419705220125
H -2.719095353646 -2.758195524272 -1.851929751570
O -1.370832279814 -0.010947177096 -1.149697169559
H -1.744314400917 0.592973737679 -0.497264584813
H -2.009603990664 -0.731485612713 -1.247942477333
O 1.038283347660 -1.432746454305 -0.896994706769
H 0.241857840596 -0.885162553123 -0.921664498072
H 1.469742771635 -1.327820812072 -1.755156566151
O -0.070668727029 -3.853473060484 -0.265980888342
H -0.531918506055 -4.077438860880 -1.082965903321
H 0.430674733414 -3.048273023917 -0.471309732066
O 0.990648376361 1.747590787937 0.127883479570
H 0.558636846523 1.035416348064 0.618405193093
H 1.884910414652 1.823165545299 0.485866248320
O 3.317692285451 -1.098049032942 0.654079315551
H 3.303825040867 -1.663577332805 1.435320922480
H 2.458104926856 -1.184959396463 0.215289035861
O -2.748101891686 1.763242612693 0.637280823093
H -2.130361092002 2.509922484302 0.619243299139
H -3.436677900490 1.956875042526 -0.010660511365
O -0.810751164276 3.756373493556 0.581743271206
H -0.114223760127 3.126048755436 0.338078271226
H -0.669297420212 3.939011074252 1.518149977656
O -1.987957543685 -2.393578531247 1.129307954727
H -1.352528682628 -2.967230913120 0.675210884892
H -2.017874907934 -2.686263630422 2.048454479242
O 3.585282378319 1.673195889630 1.105330655453
H 3.557343682085 0.705853277821 1.081726581073
H 3.963398007268 1.944299856993 0.256270003957
O -0.251488791995 -0.188148335443 1.756306281517
H -0.804156714576 -0.914250160697 1.444679232472
H -0.822907320591 0.370593552288 2.302642232801
O 0.803965371552 -4.034916365364 2.426478862709
H 0.007296653022 -3.809630094146 2.922086333172
H 0.539063580884 -4.145036336446 1.504395670853
O 3.063572091025 -2.672199482641 2.964257941715
H 3.674973182631 -3.233735825012 3.435130087842
H 2.270823461766 -3.207186282279 2.782518552718
O -1.953005327634 1.401250930082 3.282873822204
H -2.446077714619 1.497503660758 2.455175061574
H -1.440998676155 2.212861258382 3.401789683850
O 2.057659344713 2.255446496695 3.417700288466
H 1.939045738272 1.346411885051 3.723581594838
H 2.700086089136 2.203953501207 2.698931091673
O -0.252467513159 3.666836521856 3.363645656342
H 0.600222808211 3.197702504104 3.378866289015
H -0.202384920622 4.344705838917 4.034254044557
O -1.603316491725 -3.203297399869 3.777472747675
H -2.109861658225 -3.743309297311 4.380220723792
H -1.448996155405 -2.354618375729 4.225485227662
O 1.508430733602 -0.472205422364 3.865535337062
H 2.125947670067 -1.196281481529 3.717941043669
H 0.953642501190 -0.431538500812 3.069776458172
O -1.101130922541 -0.788824117792 4.915910880286
H -1.532276846740 -0.026392688529 4.509324204723
H -0.152792147985 -0.665748961730 4.771264044488