54
flexible geo
O 0.5407054 -1.391074 -4.415329
H 1.448078 -1.062820 -4.435203
H 6.4387783E-02 -0.8104522 -3.806280
O 3.281292 -0.6068310 -3.965274
H 3.372481 -1.433309 -3.459240
H 4.027464 -0.5607812 -4.558230
O 0.6280409 -3.778563 -3.095747
H 0.2930350 -4.511503 -3.606717
H 0.5469078 -2.984653 -3.652217
O 3.268370 -2.847537 -2.426888
H 2.459237 -3.329523 -2.638428
H 3.144776 -2.504335 -1.531029
O -0.4695754 4.9495581E-03 -2.183902
H -0.3911869 -0.8291257 -1.697748
H -1.108742 0.5456367 -1.702832
O 2.151784 0.8325589 -1.837939
H 1.210810 0.6535348 -1.983269
H 2.623545 0.4849875 -2.605400
O -5.5293031E-02 -2.383083 -0.7413998
H 7.7237606E-02 -3.001112 -1.470217
H 0.8258381 -2.128994 -0.4274022
O -2.042632 1.348512 -0.3502179
H -1.368025 1.815172 0.1657992
H -2.899132 1.628559 -5.5501885E-03
O 2.470732 -1.426571 -0.1384649
H 2.586249 -1.065402 0.7505912
H 2.414145 -0.6596283 -0.7251798
O 2.491421 2.413655 0.3900567
H 2.422255 1.916125 -0.4405424
H 3.186338 3.057247 0.2683331
O -1.737965 -1.096382 1.053637
H -1.241272 -1.706829 0.4944524
H -1.881480 -0.2964873 0.5273209
O -4.346064 2.003984 1.126406
H -5.274467 2.154698 0.9658281
H -4.280116 1.206221 1.679870
O -0.1486840 2.451645 1.349082
H -9.8806821E-02 1.681295 1.935284
H 0.7428333 2.592856 1.011041
O 2.568860 6.7324810E-02 2.157669
H 1.696190 5.4378059E-02 2.573196
H 2.634333 0.9151528 1.702394
O -3.855989 -0.1790481 2.677870
H -3.377228 0.1488956 3.449511
H -3.217321 -0.6987038 2.171100
O -2.408253 3.221019 2.870655
H -3.124680 2.978753 2.270451
H -1.597355 3.176416 2.346477
O -0.1369434 0.1666085 2.957843
H -0.7426695 0.4232800 3.663973
H -0.6427715 -0.3869063 2.345496
O -2.197693 1.138289 4.620235
H -2.287042 1.948332 4.088704
H -2.304793 1.391748 5.533866