192

H 0.0 0.0 0.0
H 1.4 0.0 0.0
H 2.8 0.0 0.0
H 4.199999999999999 0.0 0.0
H 5.6 0.0 0.0
H 7.0 0.0 0.0
H 8.399999999999999 0.0 0.0
H 9.799999999999999 0.0 0.0
H 11.2 0.0 0.0
H 12.6 0.0 0.0
H 14.0 0.0 0.0
H 15.399999999999999 0.0 0.0
H 16.799999999999997 0.0 0.0
H 18.2 0.0 0.0
H 19.6 0.0 0.0
H 21.0 0.0 0.0
H 22.4 0.0 0.0
H 23.8 0.0 0.0
H 25.2 0.0 0.0
H 26.6 0.0 0.0
H 28.0 0.0 0.0
H 29.4 0.0 0.0
H 30.799999999999997 0.0 0.0
H 32.2 0.0 0.0
H 33.6 0.0 0.0
H 35.0 0.0 0.0
H 36.4 0.0 0.0
H 37.8 0.0 0.0
H 39.2 0.0 0.0
H 40.6 0.0 0.0
H 42.0 0.0 0.0
H 43.4 0.0 0.0
H 44.8 0.0 0.0
H 46.2 0.0 0.0
H 47.6 0.0 0.0
H 49.0 0.0 0.0
H 50.4 0.0 0.0
H 51.8 0.0 0.0
H 53.2 0.0 0.0
H 54.6 0.0 0.0
H 56.0 0.0 0.0
H 57.4 0.0 0.0
H 58.8 0.0 0.0
H 60.2 0.0 0.0
H 61.6 0.0 0.0
H 63.0 0.0 0.0
H 64.4 0.0 0.0
H 65.8 0.0 0.0
H 67.2 0.0 0.0
H 68.6 0.0 0.0
H 70.0 0.0 0.0
H 71.4 0.0 0.0
H 72.8 0.0 0.0
H 74.2 0.0 0.0
H 75.6 0.0 0.0
H 77.0 0.0 0.0
H 78.4 0.0 0.0
H 79.8 0.0 0.0
H 81.2 0.0 0.0
H 82.6 0.0 0.0
H 84.0 0.0 0.0
H 85.4 0.0 0.0
H 86.8 0.0 0.0
H 88.2 0.0 0.0
H 89.6 0.0 0.0
H 91.0 0.0 0.0
H 92.4 0.0 0.0
H 93.8 0.0 0.0
H 95.2 0.0 0.0
H 96.6 0.0 0.0
H 98.0 0.0 0.0
H 99.4 0.0 0.0
H 100.8 0.0 0.0
H 102.2 0.0 0.0
H 103.6 0.0 0.0
H 105.0 0.0 0.0
H 106.4 0.0 0.0
H 107.8 0.0 0.0
H 109.2 0.0 0.0
H 110.6 0.0 0.0
H 112.0 0.0 0.0
H 113.4 0.0 0.0
H 114.8 0.0 0.0
H 116.2 0.0 0.0
H 117.6 0.0 0.0
H 119.0 0.0 0.0
H 120.4 0.0 0.0
H 121.8 0.0 0.0
H 123.2 0.0 0.0
H 124.6 0.0 0.0
H 126.0 0.0 0.0
H 127.4 0.0 0.0
H 128.8 0.0 0.0
H 130.2 0.0 0.0
H 131.6 0.0 0.0
H 133.0 0.0 0.0
H 134.4 0.0 0.0
H 135.8 0.0 0.0
H 137.2 0.0 0.0
H 138.6 0.0 0.0
H 140.0 0.0 0.0
H 141.4 0.0 0.0
H 142.8 0.0 0.0
H 144.2 0.0 0.0
H 145.6 0.0 0.0
H 147.0 0.0 0.0
H 148.4 0.0 0.0
H 149.8 0.0 0.0
H 151.2 0.0 0.0
H 152.6 0.0 0.0
H 154.0 0.0 0.0
H 155.4 0.0 0.0
H 156.8 0.0 0.0
H 158.2 0.0 0.0
H 159.6 0.0 0.0
H 161.0 0.0 0.0
H 162.4 0.0 0.0
H 163.8 0.0 0.0
H 165.2 0.0 0.0
H 166.6 0.0 0.0
H 168.0 0.0 0.0
H 169.4 0.0 0.0
H 170.8 0.0 0.0
H 172.2 0.0 0.0
H 173.6 0.0 0.0
H 175.0 0.0 0.0
H 176.4 0.0 0.0
H 177.8 0.0 0.0
H 179.2 0.0 0.0
H 180.6 0.0 0.0
H 182.0 0.0 0.0
H 183.4 0.0 0.0
H 184.8 0.0 0.0
H 186.2 0.0 0.0
H 187.6 0.0 0.0
H 189.0 0.0 0.0
H 190.4 0.0 0.0
H 191.8 0.0 0.0
H 193.2 0.0 0.0
H 194.6 0.0 0.0
H 196.0 0.0 0.0
H 197.39999999999998 0.0 0.0
H 198.8 0.0 0.0
H 200.2 0.0 0.0
H 201.6 0.0 0.0
H 203.0 0.0 0.0
H 204.39999999999998 0.0 0.0
H 205.8 0.0 0.0
H 207.2 0.0 0.0
H 208.6 0.0 0.0
H 210.0 0.0 0.0
H 211.39999999999998 0.0 0.0
H 212.8 0.0 0.0
H 214.2 0.0 0.0
H 215.6 0.0 0.0
H 217.0 0.0 0.0
H 218.39999999999998 0.0 0.0
H 219.8 0.0 0.0
H 221.2 0.0 0.0
H 222.6 0.0 0.0
H 224.0 0.0 0.0
H 225.39999999999998 0.0 0.0
H 226.8 0.0 0.0
H 228.2 0.0 0.0
H 229.6 0.0 0.0
H 231.0 0.0 0.0
H 232.39999999999998 0.0 0.0
H 233.8 0.0 0.0
H 235.2 0.0 0.0
H 236.6 0.0 0.0
H 238.0 0.0 0.0
H 239.39999999999998 0.0 0.0
H 240.8 0.0 0.0
H 242.2 0.0 0.0
H 243.6 0.0 0.0
H 245.0 0.0 0.0
H 246.39999999999998 0.0 0.0
H 247.8 0.0 0.0
H 249.2 0.0 0.0
H 250.6 0.0 0.0
H 252.0 0.0 0.0
H 253.39999999999998 0.0 0.0
H 254.8 0.0 0.0
H 256.2 0.0 0.0
H 257.6 0.0 0.0
H 259.0 0.0 0.0
H 260.4 0.0 0.0
H 261.79999999999995 0.0 0.0
H 263.2 0.0 0.0
H 264.6 0.0 0.0
H 266.0 0.0 0.0
H 267.4 0.0 0.0
