24

H     0     0     0
H     1.4     0     0
H     2.8     0     0
H     4.199999999999999     0     0
H     5.6     0     0
H     7.0     0     0
H     8.399999999999999     0     0
H     9.799999999999999     0     0
H     11.2     0     0
H     12.6     0     0
H     14.0     0     0
H     15.399999999999999     0     0
H     16.799999999999997     0     0
H     18.2     0     0
H     19.6     0     0
H     21.0     0     0
H     22.399999999999999     0     0
H     23.799999999999999     0     0
H     25.2     0     0
H     26.6     0     0
H     28.0     0     0
H     29.399999999999999     0     0
H     30.799999999999997     0     0
H     32.2     0     0

