10

H          0.00000        0.00000        0.00000
H          1.60000        0.00000        0.00000
H          3.20000        0.00000        0.00000
H          4.80000        0.00000        0.00000
H          6.40000        0.00000        0.00000
H          8.00000        0.00000        0.00000
H          9.60000        0.00000        0.00000
H          11.2000        0.00000        0.00000
H          12.8000        0.00000        0.00000
H          14.4000        0.00000        0.00000
