48

H     0     0     0
H     1.4     0     0
H     2.8     0     0
H     4.199999999999999     0     0
H     5.6     0     0
H     7.0     0     0
H     8.399999999999999     0     0
H     9.799999999999999     0     0
H     11.2     0     0
H     12.6     0     0
H     14.0     0     0
H     15.399999999999999     0     0
H     16.799999999999997     0     0
H     18.2     0     0
H     19.6     0     0
H     21.0     0     0
H     22.399999999999999     0     0
H     23.799999999999999     0     0
H     25.2     0     0
H     26.6     0     0
H     28.0     0     0
H     29.399999999999999     0     0
H     30.799999999999997     0     0
H     32.2     0     0
H 33.6 0 0
H 35.0 0 0
H 36.4 0 0
H 37.8 0 0
H 39.2 0 0
H 40.6 0 0
H 42.0 0 0
H 43.4 0 0
H 44.8 0 0
H 46.2 0 0
H 47.6 0 0
H 49.0 0 0
H 50.4 0 0
H 51.8 0 0
H 53.2 0 0
H 54.6 0 0
H 56.0 0 0
H 57.4 0 0
H 58.8 0 0
H 60.2 0 0
H 61.6 0 0
H 63.0 0 0
H 64.4 0 0
H 65.8 0 0

